
**** 11/23/17 00:24:42 ***** PSpice 16.6.0 (October 2012) ***** ID# 0 ********

 ;LC circuit for space-states:


 ****     CIRCUIT DESCRIPTION


******************************************************************************



;Vin 1 0 pulse (0.5, 5V, 0s, 1ns, 1ns, 1ms, 2ms)
Vin 1 0 AC 5
R1 1 2 10k
R2 2 3 10k
R3 2 0 10k
L1 3 0 4.25mF
;.tran 100us 4ms
.ac dec 10 10Hz 100000k
.probe
.end

**** 11/23/17 00:24:42 ***** PSpice 16.6.0 (October 2012) ***** ID# 0 ********

 ;LC circuit for space-states:


 ****     SMALL SIGNAL BIAS SOLUTION       TEMPERATURE =   27.000 DEG C


******************************************************************************



 NODE   VOLTAGE     NODE   VOLTAGE     NODE   VOLTAGE     NODE   VOLTAGE


(    1)    0.0000  (    2)    0.0000  (    3)    0.0000  




    VOLTAGE SOURCE CURRENTS
    NAME         CURRENT

    Vin          0.000E+00

    TOTAL POWER DISSIPATION   0.00E+00  WATTS



          JOB CONCLUDED

**** 11/23/17 00:24:42 ***** PSpice 16.6.0 (October 2012) ***** ID# 0 ********

 ;LC circuit for space-states:


 ****     JOB STATISTICS SUMMARY


******************************************************************************



  Total job time (using Solver 1)   =        0.00
